<flows>
<flow id="F0" from="R01" to="R45" begin="0" end="1000" no="25" />
<flow id="F1" from="R34" to="R12" begin="0" end="1000" no="25" />
</flows>
