<?xml version="1.0"?>

<!-- generated on 03/28/19 22:41:55 by SUMO netconvert Version 0.12.3
<?xml version="1.0" encoding="iso-8859-1"?>

<configuration xmlns:xsi="http://www.w3.org/2001/XMLSchema-instance" xsi:noNamespaceSchemaLocation="http://sumo.sf.net/xsd/netconvertConfiguration.xsd">

    <input>
        <xml-node-files value="C:\Users\Student\Documents\105nodes.nod.xml"/>
        <xml-edge-files value="C:\Users\Student\Documents\105edges.edg.xml"/>
    </input>

    <output>
        <output-file value="C:\Users\Student\Documents\105map.net.xml"/>
    </output>

    <processing>
        <speed-in-kmh value="false"/>
        <remove-geometry value="false"/>
        <remove-isolated value="false"/>
        <no-turnarounds value="false"/>
    </processing>

    <building_defaults>
        <type value="Unknown"/>
        <lanenumber value="2"/>
        <speed value="20"/>
        <priority value="75"/>
    </building_defaults>

    <report>
        <verbose value="true"/>
        <print-options value="false"/>
    </report>

</configuration>
-->

<net>

   <location netOffset="0.00,0.00" convBoundary="0.00,0.00,200.00,100.00" origBoundary="0.00,0.00,200.00,100.00" projParameter="!"/>

   <edge id=":n0_0" function="internal">
      <lanes>
         <lane id=":n0_0_0" depart="0" maxspeed="40.00" length="28.78" shape="7.98,104.95 2.32,103.56 -1.72,99.38 -4.14,92.43 -4.95,82.69"/>
      </lanes>
   </edge>
   <edge id=":n0_1" function="internal">
      <lanes>
         <lane id=":n0_1_0" depart="0" maxspeed="40.00" length="23.55" shape="7.98,101.65 3.77,100.46 0.76,96.91 -1.05,90.98 -1.65,82.69"/>
      </lanes>
   </edge>
   <edge id=":n0_2" function="internal">
      <lanes>
         <lane id=":n0_2_0" depart="0" maxspeed="40.00" length="21.48" shape="7.98,101.65 3.69,100.71 2.77,97.89 5.23,93.18 11.08,86.59"/>
      </lanes>
   </edge>
   <edge id=":n0_3" function="internal">
      <lanes>
         <lane id=":n0_3_0" depart="0" maxspeed="40.00" length="4.82" shape="7.98,101.65 6.74,100.83 6.33,100.00 6.74,99.18 7.98,98.35"/>
      </lanes>
   </edge>
   <edge id=":n0_4" function="internal">
      <lanes>
         <lane id=":n0_4_0" depart="0" maxspeed="40.00" length="6.64" shape="4.95,82.69 5.19,84.80 5.90,85.76 7.08,85.58 8.74,84.26"/>
      </lanes>
   </edge>
   <edge id=":n0_5" function="internal">
      <lanes>
         <lane id=":n0_5_0" depart="0" maxspeed="40.00" length="13.36" shape="4.95,82.69 5.14,88.10 5.71,91.96 6.65,94.28 7.98,95.05"/>
      </lanes>
   </edge>
   <edge id=":n0_6" function="internal">
      <lanes>
         <lane id=":n0_6_0" depart="0" maxspeed="40.00" length="18.38" shape="1.65,82.69 2.05,89.54 3.23,94.43 5.21,97.37 7.98,98.35"/>
      </lanes>
   </edge>
   <edge id=":n0_7" function="internal">
      <lanes>
         <lane id=":n0_7_0" depart="0" maxspeed="40.00" length="4.82" shape="1.65,82.69 0.83,83.92 0.00,84.34 -0.82,83.92 -1.65,82.69"/>
      </lanes>
   </edge>
   <edge id=":n1_0" function="internal">
      <lanes>
         <lane id=":n1_0_0" depart="0" maxspeed="40.00" length="16.10" shape="108.05,104.95 103.27,104.95 100.00,104.95 96.73,104.95 91.95,104.95"/>
      </lanes>
   </edge>
   <edge id=":n1_1" function="internal">
      <lanes>
         <lane id=":n1_1_0" depart="0" maxspeed="40.00" length="16.10" shape="108.05,101.65 103.27,101.65 100.00,101.65 96.73,101.65 91.95,101.65"/>
      </lanes>
   </edge>
   <edge id=":n1_2" function="internal">
      <lanes>
         <lane id=":n1_2_0" depart="0" maxspeed="40.00" length="15.64" shape="108.05,101.65 103.81,101.04 100.77,99.23 98.96,96.19 98.35,91.95"/>
      </lanes>
   </edge>
   <edge id=":n1_3" function="internal">
      <lanes>
         <lane id=":n1_3_0" depart="0" maxspeed="40.00" length="4.82" shape="108.05,101.65 106.81,100.83 106.40,100.00 106.81,99.18 108.05,98.35"/>
      </lanes>
   </edge>
   <edge id=":n1_4" function="internal">
      <lanes>
         <lane id=":n1_4_0" depart="0" maxspeed="40.00" length="5.00" shape="104.95,91.95 105.14,93.31 105.73,94.28 106.69,94.86 108.05,95.05"/>
      </lanes>
   </edge>
   <edge id=":n1_5" function="internal">
      <lanes>
         <lane id=":n1_5_0" depart="0" maxspeed="40.00" length="15.64" shape="101.65,91.95 101.04,96.19 99.23,99.22 96.19,101.04 91.95,101.65"/>
      </lanes>
   </edge>
   <edge id=":n1_6" function="internal">
      <lanes>
         <lane id=":n1_6_0" depart="0" maxspeed="40.00" length="4.82" shape="101.65,91.95 100.82,93.19 100.00,93.60 99.17,93.19 98.35,91.95"/>
      </lanes>
   </edge>
   <edge id=":n1_7" function="internal">
      <lanes>
         <lane id=":n1_7_0" depart="0" maxspeed="40.00" length="5.00" shape="91.95,95.05 93.31,94.86 94.27,94.27 94.86,93.31 95.05,91.95"/>
      </lanes>
   </edge>
   <edge id=":n1_8" function="internal">
      <lanes>
         <lane id=":n1_8_0" depart="0" maxspeed="40.00" length="16.10" shape="91.95,95.05 96.73,95.05 100.00,95.05 103.27,95.05 108.05,95.05"/>
      </lanes>
   </edge>
   <edge id=":n1_9" function="internal">
      <lanes>
         <lane id=":n1_9_0" depart="0" maxspeed="40.00" length="16.10" shape="91.95,98.35 96.73,98.35 100.00,98.35 103.27,98.35 108.05,98.35"/>
      </lanes>
   </edge>
   <edge id=":n1_10" function="internal">
      <lanes>
         <lane id=":n1_10_0" depart="0" maxspeed="40.00" length="4.82" shape="91.95,98.35 93.19,99.17 93.60,100.00 93.19,100.82 91.95,101.65"/>
      </lanes>
   </edge>
   <edge id=":n2_0" function="internal">
      <lanes>
         <lane id=":n2_0_0" depart="0" maxspeed="40.00" length="18.55" shape="204.95,93.45 204.23,98.48 202.08,102.08 198.48,104.23 193.45,104.95"/>
      </lanes>
   </edge>
   <edge id=":n2_1" function="internal">
      <lanes>
         <lane id=":n2_1_0" depart="0" maxspeed="40.00" length="13.22" shape="201.65,93.45 201.14,97.04 199.60,99.60 197.04,101.14 193.45,101.65"/>
      </lanes>
   </edge>
   <edge id=":n2_2" function="internal">
      <lanes>
         <lane id=":n2_2_0" depart="0" maxspeed="40.00" length="4.82" shape="201.65,93.45 200.83,94.69 200.00,95.10 199.18,94.69 198.35,93.45"/>
      </lanes>
   </edge>
   <edge id=":n2_3" function="internal">
      <lanes>
         <lane id=":n2_3_0" depart="0" maxspeed="40.00" length="2.58" shape="193.45,95.05 194.15,94.95 194.65,94.65 194.95,94.15 195.05,93.45"/>
      </lanes>
   </edge>
   <edge id=":n2_4" function="internal">
      <lanes>
         <lane id=":n2_4_0" depart="0" maxspeed="40.00" length="7.90" shape="193.45,98.35 195.59,98.04 197.12,97.13 198.04,95.59 198.35,93.45"/>
      </lanes>
   </edge>
   <edge id=":n2_5" function="internal">
      <lanes>
         <lane id=":n2_5_0" depart="0" maxspeed="40.00" length="4.82" shape="193.45,98.35 194.69,99.18 195.10,100.00 194.69,100.83 193.45,101.65"/>
      </lanes>
   </edge>
   <edge id=":n3_0" function="internal">
      <lanes>
         <lane id=":n3_0_0" depart="0" maxspeed="40.00" length="18.55" shape="-4.95,6.55 -4.23,1.52 -2.08,-2.08 1.52,-4.23 6.55,-4.95"/>
      </lanes>
   </edge>
   <edge id=":n3_1" function="internal">
      <lanes>
         <lane id=":n3_1_0" depart="0" maxspeed="40.00" length="13.22" shape="-1.65,6.55 -1.14,2.96 0.40,0.40 2.96,-1.14 6.55,-1.65"/>
      </lanes>
   </edge>
   <edge id=":n3_2" function="internal">
      <lanes>
         <lane id=":n3_2_0" depart="0" maxspeed="40.00" length="4.82" shape="-1.65,6.55 -0.83,5.31 -0.00,4.90 0.82,5.31 1.65,6.55"/>
      </lanes>
   </edge>
   <edge id=":n3_3" function="internal">
      <lanes>
         <lane id=":n3_3_0" depart="0" maxspeed="40.00" length="2.58" shape="6.55,4.95 5.85,5.05 5.35,5.35 5.05,5.85 4.95,6.55"/>
      </lanes>
   </edge>
   <edge id=":n3_4" function="internal">
      <lanes>
         <lane id=":n3_4_0" depart="0" maxspeed="40.00" length="7.90" shape="6.55,1.65 4.41,1.96 2.88,2.87 1.96,4.41 1.65,6.55"/>
      </lanes>
   </edge>
   <edge id=":n3_5" function="internal">
      <lanes>
         <lane id=":n3_5_0" depart="0" maxspeed="40.00" length="4.82" shape="6.55,1.65 5.31,0.82 4.90,-0.00 5.31,-0.83 6.55,-1.65"/>
      </lanes>
   </edge>
   <edge id=":n4_0" function="internal">
      <lanes>
         <lane id=":n4_0_0" depart="0" maxspeed="40.00" length="15.39" shape="95.05,7.98 94.28,5.21 91.96,3.23 88.10,2.05 82.69,1.65"/>
      </lanes>
   </edge>
   <edge id=":n4_1" function="internal">
      <lanes>
         <lane id=":n4_1_0" depart="0" maxspeed="40.00" length="15.59" shape="98.35,7.98 98.96,3.77 100.77,0.76 103.81,-1.05 108.05,-1.65"/>
      </lanes>
   </edge>
   <edge id=":n4_2" function="internal">
      <lanes>
         <lane id=":n4_2_0" depart="0" maxspeed="40.00" length="4.82" shape="98.35,7.98 99.18,6.74 100.00,6.33 100.83,6.74 101.65,7.98"/>
      </lanes>
   </edge>
   <edge id=":n4_3" function="internal">
      <lanes>
         <lane id=":n4_3_0" depart="0" maxspeed="40.00" length="4.94" shape="108.05,4.95 106.69,5.14 105.73,5.71 105.14,6.65 104.95,7.98"/>
      </lanes>
   </edge>
   <edge id=":n4_4" function="internal">
      <lanes>
         <lane id=":n4_4_0" depart="0" maxspeed="40.00" length="25.36" shape="108.05,4.95 101.27,4.95 95.37,4.95 89.46,4.95 82.69,4.95"/>
      </lanes>
   </edge>
   <edge id=":n4_5" function="internal">
      <lanes>
         <lane id=":n4_5_0" depart="0" maxspeed="40.00" length="25.36" shape="108.05,1.65 101.27,1.65 95.37,1.65 89.46,1.65 82.69,1.65"/>
      </lanes>
   </edge>
   <edge id=":n4_6" function="internal">
      <lanes>
         <lane id=":n4_6_0" depart="0" maxspeed="40.00" length="4.82" shape="108.05,1.65 106.81,0.83 106.40,0.00 106.81,-0.82 108.05,-1.65"/>
      </lanes>
   </edge>
   <edge id=":n4_7" function="internal">
      <lanes>
         <lane id=":n4_7_0" depart="0" maxspeed="40.00" length="25.36" shape="82.69,-4.95 89.46,-4.95 95.37,-4.95 101.27,-4.95 108.05,-4.95"/>
      </lanes>
   </edge>
   <edge id=":n4_8" function="internal">
      <lanes>
         <lane id=":n4_8_0" depart="0" maxspeed="40.00" length="25.36" shape="82.69,-1.65 89.46,-1.65 95.37,-1.65 101.27,-1.65 108.05,-1.65"/>
      </lanes>
   </edge>
   <edge id=":n4_9" function="internal">
      <lanes>
         <lane id=":n4_9_0" depart="0" maxspeed="40.00" length="23.55" shape="82.69,-1.65 90.98,-1.05 96.91,0.76 100.46,3.77 101.65,7.98"/>
      </lanes>
   </edge>
   <edge id=":n4_10" function="internal">
      <lanes>
         <lane id=":n4_10_0" depart="0" maxspeed="40.00" length="4.82" shape="82.69,-1.65 83.92,-0.83 84.34,-0.00 83.92,0.82 82.69,1.65"/>
      </lanes>
   </edge>
   <edge id=":n4_11" function="internal">
      <lanes>
         <lane id=":n4_11_0" depart="0" maxspeed="40.00" length="6.64" shape="84.26,8.74 85.58,7.08 85.76,5.90 84.80,5.19 82.69,4.95"/>
      </lanes>
   </edge>
   <edge id=":n4_12" function="internal">
      <lanes>
         <lane id=":n4_12_0" depart="0" maxspeed="40.00" length="25.48" shape="86.59,11.08 92.70,5.51 98.32,1.53 103.43,-0.85 108.05,-1.65"/>
      </lanes>
   </edge>
   <edge id=":n4_13" function="internal">
      <lanes>
         <lane id=":n4_13_0" depart="0" maxspeed="40.00" length="21.48" shape="86.59,11.08 93.18,5.23 97.89,2.77 100.71,3.69 101.65,7.98"/>
      </lanes>
   </edge>
   <edge id=":n5_0" function="internal">
      <lanes>
         <lane id=":n5_0_0" depart="0" maxspeed="40.00" length="2.58" shape="195.05,6.55 194.95,5.85 194.65,5.35 194.15,5.05 193.45,4.95"/>
      </lanes>
   </edge>
   <edge id=":n5_1" function="internal">
      <lanes>
         <lane id=":n5_1_0" depart="0" maxspeed="40.00" length="7.90" shape="198.35,6.55 198.04,4.41 197.12,2.87 195.59,1.96 193.45,1.65"/>
      </lanes>
   </edge>
   <edge id=":n5_2" function="internal">
      <lanes>
         <lane id=":n5_2_0" depart="0" maxspeed="40.00" length="4.82" shape="198.35,6.55 199.17,5.31 200.00,4.90 200.82,5.31 201.65,6.55"/>
      </lanes>
   </edge>
   <edge id=":n5_3" function="internal">
      <lanes>
         <lane id=":n5_3_0" depart="0" maxspeed="40.00" length="18.55" shape="193.45,-4.95 198.48,-4.23 202.08,-2.08 204.23,1.52 204.95,6.55"/>
      </lanes>
   </edge>
   <edge id=":n5_4" function="internal">
      <lanes>
         <lane id=":n5_4_0" depart="0" maxspeed="40.00" length="13.22" shape="193.45,-1.65 197.04,-1.14 199.60,0.40 201.14,2.96 201.65,6.55"/>
      </lanes>
   </edge>
   <edge id=":n5_5" function="internal">
      <lanes>
         <lane id=":n5_5_0" depart="0" maxspeed="40.00" length="4.82" shape="193.45,-1.65 194.69,-0.83 195.10,-0.00 194.69,0.82 193.45,1.65"/>
      </lanes>
   </edge>

   <edge id="D03" from="n0" to="n3" priority="75" type="" function="normal">
      <lanes>
         <lane id="D03_0" depart="1" maxspeed="40.00" length="76.14" shape="-4.95,82.69 -4.95,6.55"/>
         <lane id="D03_1" depart="0" maxspeed="40.00" length="76.14" shape="-1.65,82.69 -1.65,6.55"/>
      </lanes>
   </edge>
   <edge id="D04" from="n0" to="n4" priority="75" type="" function="normal">
      <lanes>
         <lane id="D04_0" depart="1" maxspeed="40.00" length="106.80" shape="8.74,84.26 84.26,8.74"/>
         <lane id="D04_1" depart="0" maxspeed="40.00" length="106.80" shape="11.08,86.59 86.59,11.08"/>
      </lanes>
   </edge>
   <edge id="D14" from="n1" to="n4" priority="75" type="" function="normal">
      <lanes>
         <lane id="D14_0" depart="1" maxspeed="40.00" length="83.97" shape="95.05,91.95 95.05,7.98"/>
         <lane id="D14_1" depart="0" maxspeed="40.00" length="83.97" shape="98.35,91.95 98.35,7.98"/>
      </lanes>
   </edge>
   <edge id="D25" from="n2" to="n5" priority="75" type="" function="normal">
      <lanes>
         <lane id="D25_0" depart="1" maxspeed="40.00" length="86.90" shape="195.05,93.45 195.05,6.55"/>
         <lane id="D25_1" depart="0" maxspeed="40.00" length="86.90" shape="198.35,93.45 198.35,6.55"/>
      </lanes>
   </edge>
   <edge id="L10" from="n1" to="n0" priority="75" type="" function="normal">
      <lanes>
         <lane id="L10_0" depart="1" maxspeed="40.00" length="83.97" shape="91.95,104.95 7.98,104.95"/>
         <lane id="L10_1" depart="0" maxspeed="40.00" length="83.97" shape="91.95,101.65 7.98,101.65"/>
      </lanes>
   </edge>
   <edge id="L21" from="n2" to="n1" priority="75" type="" function="normal">
      <lanes>
         <lane id="L21_0" depart="1" maxspeed="40.00" length="85.40" shape="193.45,104.95 108.05,104.95"/>
         <lane id="L21_1" depart="0" maxspeed="40.00" length="85.40" shape="193.45,101.65 108.05,101.65"/>
      </lanes>
   </edge>
   <edge id="L43" from="n4" to="n3" priority="75" type="" function="normal">
      <lanes>
         <lane id="L43_0" depart="1" maxspeed="40.00" length="76.14" shape="82.69,4.95 6.55,4.95"/>
         <lane id="L43_1" depart="0" maxspeed="40.00" length="76.14" shape="82.69,1.65 6.55,1.65"/>
      </lanes>
   </edge>
   <edge id="L54" from="n5" to="n4" priority="75" type="" function="normal">
      <lanes>
         <lane id="L54_0" depart="1" maxspeed="40.00" length="85.40" shape="193.45,4.95 108.05,4.95"/>
         <lane id="L54_1" depart="0" maxspeed="40.00" length="85.40" shape="193.45,1.65 108.05,1.65"/>
      </lanes>
   </edge>
   <edge id="R01" from="n0" to="n1" priority="75" type="" function="normal">
      <lanes>
         <lane id="R01_0" depart="1" maxspeed="40.00" length="83.97" shape="7.98,95.05 91.95,95.05"/>
         <lane id="R01_1" depart="0" maxspeed="40.00" length="83.97" shape="7.98,98.35 91.95,98.35"/>
      </lanes>
   </edge>
   <edge id="R12" from="n1" to="n2" priority="75" type="" function="normal">
      <lanes>
         <lane id="R12_0" depart="1" maxspeed="40.00" length="85.40" shape="108.05,95.05 193.45,95.05"/>
         <lane id="R12_1" depart="0" maxspeed="40.00" length="85.40" shape="108.05,98.35 193.45,98.35"/>
      </lanes>
   </edge>
   <edge id="R34" from="n3" to="n4" priority="75" type="" function="normal">
      <lanes>
         <lane id="R34_0" depart="1" maxspeed="40.00" length="76.14" shape="6.55,-4.95 82.69,-4.95"/>
         <lane id="R34_1" depart="0" maxspeed="40.00" length="76.14" shape="6.55,-1.65 82.69,-1.65"/>
      </lanes>
   </edge>
   <edge id="R45" from="n4" to="n5" priority="75" type="" function="normal">
      <lanes>
         <lane id="R45_0" depart="1" maxspeed="40.00" length="85.40" shape="108.05,-4.95 193.45,-4.95"/>
         <lane id="R45_1" depart="0" maxspeed="40.00" length="85.40" shape="108.05,-1.65 193.45,-1.65"/>
      </lanes>
   </edge>
   <edge id="U30" from="n3" to="n0" priority="75" type="" function="normal">
      <lanes>
         <lane id="U30_0" depart="1" maxspeed="40.00" length="76.14" shape="4.95,6.55 4.95,82.69"/>
         <lane id="U30_1" depart="0" maxspeed="40.00" length="76.14" shape="1.65,6.55 1.65,82.69"/>
      </lanes>
   </edge>
   <edge id="U41" from="n4" to="n1" priority="75" type="" function="normal">
      <lanes>
         <lane id="U41_0" depart="1" maxspeed="40.00" length="83.97" shape="104.95,7.98 104.95,91.95"/>
         <lane id="U41_1" depart="0" maxspeed="40.00" length="83.97" shape="101.65,7.98 101.65,91.95"/>
      </lanes>
   </edge>
   <edge id="U52" from="n5" to="n2" priority="75" type="" function="normal">
      <lanes>
         <lane id="U52_0" depart="1" maxspeed="40.00" length="86.90" shape="204.95,6.55 204.95,93.45"/>
         <lane id="U52_1" depart="0" maxspeed="40.00" length="86.90" shape="201.65,6.55 201.65,93.45"/>
      </lanes>
   </edge>

   <row-logic id="n0" requestSize="8" laneNumber="4">
      <logic>
         <logicitem request="0" response="00000000" foes="10000000" cont="0"/>
         <logicitem request="1" response="00000000" foes="10000000" cont="0"/>
         <logicitem request="2" response="01110000" foes="01110000" cont="0"/>
         <logicitem request="3" response="01100000" foes="01100000" cont="0"/>
         <logicitem request="4" response="00000000" foes="00000100" cont="0"/>
         <logicitem request="5" response="00000000" foes="00001100" cont="0"/>
         <logicitem request="6" response="00000000" foes="00001100" cont="0"/>
         <logicitem request="7" response="00000011" foes="00000011" cont="0"/>
      </logic>
   </row-logic>
   <row-logic id="n1" requestSize="11" laneNumber="6">
      <logic>
         <logicitem request="0" response="00000000000" foes="10000100000" cont="0"/>
         <logicitem request="1" response="00000000000" foes="10000100000" cont="0"/>
         <logicitem request="2" response="01110000000" foes="01111100000" cont="0"/>
         <logicitem request="3" response="01100010000" foes="01100010000" cont="0"/>
         <logicitem request="4" response="01100000000" foes="01100001000" cont="0"/>
         <logicitem request="5" response="01100000111" foes="11100000111" cont="0"/>
         <logicitem request="6" response="00010000100" foes="00010000100" cont="0"/>
         <logicitem request="7" response="00000000000" foes="00001000100" cont="0"/>
         <logicitem request="8" response="00000000000" foes="00000111100" cont="0"/>
         <logicitem request="9" response="00000000000" foes="00000111100" cont="0"/>
         <logicitem request="10" response="00000100011" foes="00000100011" cont="0"/>
      </logic>
   </row-logic>
   <row-logic id="n2" requestSize="6" laneNumber="4">
      <logic>
         <logicitem request="0" response="000000" foes="100000" cont="0"/>
         <logicitem request="1" response="000000" foes="100000" cont="0"/>
         <logicitem request="2" response="011000" foes="011000" cont="0"/>
         <logicitem request="3" response="000000" foes="000100" cont="0"/>
         <logicitem request="4" response="000000" foes="000100" cont="0"/>
         <logicitem request="5" response="000011" foes="000011" cont="0"/>
      </logic>
   </row-logic>
   <row-logic id="n3" requestSize="6" laneNumber="4">
      <logic>
         <logicitem request="0" response="000000" foes="100000" cont="0"/>
         <logicitem request="1" response="000000" foes="100000" cont="0"/>
         <logicitem request="2" response="011000" foes="011000" cont="0"/>
         <logicitem request="3" response="000000" foes="000100" cont="0"/>
         <logicitem request="4" response="000000" foes="000100" cont="0"/>
         <logicitem request="5" response="000011" foes="000011" cont="0"/>
      </logic>
   </row-logic>
   <row-logic id="n4" requestSize="14" laneNumber="8">
      <logic>
         <logicitem request="0" response="11100000110000" foes="11110000110000" cont="0"/>
         <logicitem request="1" response="11001110110000" foes="11001111110000" cont="0"/>
         <logicitem request="2" response="10001000001000" foes="10001000001000" cont="0"/>
         <logicitem request="3" response="00000000000000" foes="10001000000100" cont="0"/>
         <logicitem request="4" response="00000000000000" foes="01111000000011" cont="0"/>
         <logicitem request="5" response="00000000000000" foes="01111000000011" cont="0"/>
         <logicitem request="6" response="01000110000010" foes="01000110000010" cont="0"/>
         <logicitem request="7" response="00000000000000" foes="01000001000010" cont="0"/>
         <logicitem request="8" response="00000000000000" foes="01000001000010" cont="0"/>
         <logicitem request="9" response="00000000111000" foes="11000000111110" cont="0"/>
         <logicitem request="10" response="00100000110001" foes="00100000110001" cont="0"/>
         <logicitem request="11" response="00000000110000" foes="00010000110001" cont="0"/>
         <logicitem request="12" response="00001110110000" foes="00001111110011" cont="0"/>
         <logicitem request="13" response="00001000001000" foes="00001000001111" cont="0"/>
      </logic>
   </row-logic>
   <row-logic id="n5" requestSize="6" laneNumber="4">
      <logic>
         <logicitem request="0" response="000000" foes="100000" cont="0"/>
         <logicitem request="1" response="000000" foes="100000" cont="0"/>
         <logicitem request="2" response="011000" foes="011000" cont="0"/>
         <logicitem request="3" response="000000" foes="000100" cont="0"/>
         <logicitem request="4" response="000000" foes="000100" cont="0"/>
         <logicitem request="5" response="000011" foes="000011" cont="0"/>
      </logic>
   </row-logic>

   <junction id="n0" type="priority" x="0.00" y="100.00" incLanes="L10_0 L10_1 U30_0 U30_1" intLanes=":n0_0_0 :n0_1_0 :n0_2_0 :n0_3_0 :n0_4_0 :n0_5_0 :n0_6_0 :n0_7_0" shape="7.98,106.55 7.98,93.45 12.21,87.72 7.61,83.13 6.55,82.69 -6.55,82.69"/>
   <junction id="n1" type="priority" x="100.00" y="100.00" incLanes="L21_0 L21_1 U41_0 U41_1 R01_0 R01_1" intLanes=":n1_0_0 :n1_1_0 :n1_2_0 :n1_3_0 :n1_4_0 :n1_5_0 :n1_6_0 :n1_7_0 :n1_8_0 :n1_9_0 :n1_10_0" shape="108.05,106.55 108.05,93.45 106.55,91.95 93.45,91.95 91.95,93.45 91.95,106.55"/>
   <junction id="n2" type="priority" x="200.00" y="100.00" incLanes="U52_0 U52_1 R12_0 R12_1" intLanes=":n2_0_0 :n2_1_0 :n2_2_0 :n2_3_0 :n2_4_0 :n2_5_0" shape="206.55,93.45 193.45,93.45 193.45,106.55"/>
   <junction id="n3" type="priority" x="0.00" y="0.00" incLanes="D03_0 D03_1 L43_0 L43_1" intLanes=":n3_0_0 :n3_1_0 :n3_2_0 :n3_3_0 :n3_4_0 :n3_5_0" shape="-6.55,6.55 6.55,6.55 6.55,-6.55"/>
   <junction id="n4" type="priority" x="100.00" y="0.00" incLanes="D14_0 D14_1 L54_0 L54_1 R34_0 R34_1 D04_0 D04_1" intLanes=":n4_0_0 :n4_1_0 :n4_2_0 :n4_3_0 :n4_4_0 :n4_5_0 :n4_6_0 :n4_7_0 :n4_8_0 :n4_9_0 :n4_10_0 :n4_11_0 :n4_12_0 :n4_13_0" shape="93.45,7.98 106.55,7.98 108.05,6.55 108.05,-6.55 82.69,-6.55 82.69,6.55 83.13,7.61 87.72,12.21"/>
   <junction id="n5" type="priority" x="200.00" y="0.00" incLanes="D25_0 D25_1 R45_0 R45_1" intLanes=":n5_0_0 :n5_1_0 :n5_2_0 :n5_3_0 :n5_4_0 :n5_5_0" shape="193.45,6.55 206.55,6.55 193.45,-6.55 193.45,6.55"/>

   <succ edge="D03" lane="D03_0" junction="n3">
      <succlane lane="R34_0" via=":n3_0_0" yield="0" dir="l" state="M"/>
   </succ>
   <succ edge="D03" lane="D03_1" junction="n3">
      <succlane lane="R34_1" via=":n3_1_0" yield="0" dir="l" state="M"/>
      <succlane lane="U30_1" via=":n3_2_0" yield="1" dir="t" state="m"/>
   </succ>
   <succ edge="D04" lane="D04_0" junction="n4">
      <succlane lane="L43_0" via=":n4_11_0" yield="1" dir="r" state="m"/>
   </succ>
   <succ edge="D04" lane="D04_1" junction="n4">
      <succlane lane="R45_1" via=":n4_12_0" yield="1" dir="L" state="m"/>
      <succlane lane="U41_1" via=":n4_13_0" yield="1" dir="l" state="m"/>
   </succ>
   <succ edge="D14" lane="D14_0" junction="n4">
      <succlane lane="L43_1" via=":n4_0_0" yield="1" dir="r" state="m"/>
   </succ>
   <succ edge="D14" lane="D14_1" junction="n4">
      <succlane lane="R45_1" via=":n4_1_0" yield="1" dir="l" state="m"/>
      <succlane lane="U41_1" via=":n4_2_0" yield="1" dir="t" state="m"/>
   </succ>
   <succ edge="D25" lane="D25_0" junction="n5">
      <succlane lane="L54_0" via=":n5_0_0" yield="0" dir="r" state="M"/>
   </succ>
   <succ edge="D25" lane="D25_1" junction="n5">
      <succlane lane="L54_1" via=":n5_1_0" yield="0" dir="r" state="M"/>
      <succlane lane="U52_1" via=":n5_2_0" yield="1" dir="t" state="m"/>
   </succ>
   <succ edge="L10" lane="L10_0" junction="n0">
      <succlane lane="D03_0" via=":n0_0_0" yield="0" dir="L" state="M"/>
   </succ>
   <succ edge="L10" lane="L10_1" junction="n0">
      <succlane lane="D03_1" via=":n0_1_0" yield="0" dir="L" state="M"/>
      <succlane lane="D04_1" via=":n0_2_0" yield="0" dir="l" state="M"/>
      <succlane lane="R01_1" via=":n0_3_0" yield="1" dir="t" state="m"/>
   </succ>
   <succ edge="L21" lane="L21_0" junction="n1">
      <succlane lane="L10_0" via=":n1_0_0" yield="0" dir="s" state="M"/>
   </succ>
   <succ edge="L21" lane="L21_1" junction="n1">
      <succlane lane="L10_1" via=":n1_1_0" yield="0" dir="s" state="M"/>
      <succlane lane="D14_1" via=":n1_2_0" yield="1" dir="l" state="m"/>
      <succlane lane="R12_1" via=":n1_3_0" yield="1" dir="t" state="m"/>
   </succ>
   <succ edge="L43" lane="L43_0" junction="n3">
      <succlane lane="U30_0" via=":n3_3_0" yield="0" dir="r" state="M"/>
   </succ>
   <succ edge="L43" lane="L43_1" junction="n3">
      <succlane lane="U30_1" via=":n3_4_0" yield="0" dir="r" state="M"/>
      <succlane lane="R34_1" via=":n3_5_0" yield="1" dir="t" state="m"/>
   </succ>
   <succ edge="L54" lane="L54_0" junction="n4">
      <succlane lane="U41_0" via=":n4_3_0" yield="0" dir="r" state="M"/>
      <succlane lane="L43_0" via=":n4_4_0" yield="0" dir="s" state="M"/>
   </succ>
   <succ edge="L54" lane="L54_1" junction="n4">
      <succlane lane="L43_1" via=":n4_5_0" yield="0" dir="s" state="M"/>
      <succlane lane="R45_1" via=":n4_6_0" yield="1" dir="t" state="m"/>
   </succ>
   <succ edge="R01" lane="R01_0" junction="n1">
      <succlane lane="D14_0" via=":n1_7_0" yield="0" dir="r" state="M"/>
      <succlane lane="R12_0" via=":n1_8_0" yield="0" dir="s" state="M"/>
   </succ>
   <succ edge="R01" lane="R01_1" junction="n1">
      <succlane lane="R12_1" via=":n1_9_0" yield="0" dir="s" state="M"/>
      <succlane lane="L10_1" via=":n1_10_0" yield="1" dir="t" state="m"/>
   </succ>
   <succ edge="R12" lane="R12_0" junction="n2">
      <succlane lane="D25_0" via=":n2_3_0" yield="0" dir="r" state="M"/>
   </succ>
   <succ edge="R12" lane="R12_1" junction="n2">
      <succlane lane="D25_1" via=":n2_4_0" yield="0" dir="r" state="M"/>
      <succlane lane="L21_1" via=":n2_5_0" yield="1" dir="t" state="m"/>
   </succ>
   <succ edge="R34" lane="R34_0" junction="n4">
      <succlane lane="R45_0" via=":n4_7_0" yield="0" dir="s" state="M"/>
   </succ>
   <succ edge="R34" lane="R34_1" junction="n4">
      <succlane lane="R45_1" via=":n4_8_0" yield="0" dir="s" state="M"/>
      <succlane lane="U41_1" via=":n4_9_0" yield="1" dir="l" state="m"/>
      <succlane lane="L43_1" via=":n4_10_0" yield="1" dir="t" state="m"/>
   </succ>
   <succ edge="R45" lane="R45_0" junction="n5">
      <succlane lane="U52_0" via=":n5_3_0" yield="0" dir="l" state="M"/>
   </succ>
   <succ edge="R45" lane="R45_1" junction="n5">
      <succlane lane="U52_1" via=":n5_4_0" yield="0" dir="l" state="M"/>
      <succlane lane="L54_1" via=":n5_5_0" yield="1" dir="t" state="m"/>
   </succ>
   <succ edge="U30" lane="U30_0" junction="n0">
      <succlane lane="D04_0" via=":n0_4_0" yield="0" dir="r" state="M"/>
      <succlane lane="R01_0" via=":n0_5_0" yield="0" dir="R" state="M"/>
   </succ>
   <succ edge="U30" lane="U30_1" junction="n0">
      <succlane lane="R01_1" via=":n0_6_0" yield="0" dir="R" state="M"/>
      <succlane lane="D03_1" via=":n0_7_0" yield="1" dir="t" state="m"/>
   </succ>
   <succ edge="U41" lane="U41_0" junction="n1">
      <succlane lane="R12_0" via=":n1_4_0" yield="1" dir="r" state="m"/>
   </succ>
   <succ edge="U41" lane="U41_1" junction="n1">
      <succlane lane="L10_1" via=":n1_5_0" yield="1" dir="l" state="m"/>
      <succlane lane="D14_1" via=":n1_6_0" yield="1" dir="t" state="m"/>
   </succ>
   <succ edge="U52" lane="U52_0" junction="n2">
      <succlane lane="L21_0" via=":n2_0_0" yield="0" dir="l" state="M"/>
   </succ>
   <succ edge="U52" lane="U52_1" junction="n2">
      <succlane lane="L21_1" via=":n2_1_0" yield="0" dir="l" state="M"/>
      <succlane lane="D25_1" via=":n2_2_0" yield="1" dir="t" state="m"/>
   </succ>

   <succ edge=":n0_0" lane=":n0_0_0" junction="n0">
      <succlane lane="D03_0" tl="" linkno="" yield="0" dir="s" state="M"/>
   </succ>
   <succ edge=":n0_1" lane=":n0_1_0" junction="n0">
      <succlane lane="D03_1" tl="" linkno="" yield="0" dir="s" state="M"/>
   </succ>
   <succ edge=":n0_2" lane=":n0_2_0" junction="n0">
      <succlane lane="D04_1" tl="" linkno="" yield="0" dir="s" state="M"/>
   </succ>
   <succ edge=":n0_3" lane=":n0_3_0" junction="n0">
      <succlane lane="R01_1" tl="" linkno="" yield="0" dir="s" state="M"/>
   </succ>
   <succ edge=":n0_4" lane=":n0_4_0" junction="n0">
      <succlane lane="D04_0" tl="" linkno="" yield="0" dir="s" state="M"/>
   </succ>
   <succ edge=":n0_5" lane=":n0_5_0" junction="n0">
      <succlane lane="R01_0" tl="" linkno="" yield="0" dir="s" state="M"/>
   </succ>