<nodes>
<node id="n0" x="0" y="100" type="priority"/>
<node id="n1" x="100" y="100" type="priority"/>
<node id="n2" x="200" y="100" type="priority"/>
<node id="n3" x="0" y="0" type="priority"/>
<node id="n4" x="100" y="0" type="priority"/>
<node id="n5" x="200" y="0" type="priority"/>
</nodes>
