<?xml version="1.0"?>

<!-- generated on 03/28/19 22:42:18 by SUMO jtrrouter Version 0.12.3
<?xml version="1.0" encoding="iso-8859-1"?>

<configuration xmlns:xsi="http://www.w3.org/2001/XMLSchema-instance" xsi:noNamespaceSchemaLocation="http://sumo.sf.net/xsd/jtrrouterConfiguration.xsd">

    <input>
        <net-file value="C:\Users\Student\Documents\105map.net.xml"/>
        <flow-definition value="C:\Users\Student\Documents\105flow.flow.xml"/>
        <turn-definition value="C:\Users\Student\Documents\105turn.turn.xml"/>
    </input>

    <output>
        <output-file value="C:\Users\Student\Documents\105rou.rou.xml"/>
    </output>

    <processing>
        <continue-on-unbuild value="true"/>
    </processing>

    <time>
        <begin value="0"/>
        <end value="1000"/>
    </time>

    <report>
        <verbose value="true"/>
        <suppress-warnings value="true"/>
    </report>

</configuration>
-->

<routes>
    <vehicle id="F0_0" depart="0.00">
        <route edges="R01 D14 R45 U52 L21 D14 R45 L54 U41 L10 D04 L43 R34 U41 L10 D04 L43 U30 D03 R34 U41 R12 D25 L54 L43 R34 U41 D14 R45 U52 L21"/>
    </vehicle>
    <vehicle id="F1_0" depart="0.00">
        <route edges="R34 U41 L10 D04 L43 R34 U41 L10 D04 L43 U30 R01 D14 R45 U52 L21 D14 R45 L54 U41 L10 D04 R45 L54 R45 L54 L43 U30 R01 D14 R45"/>
    </vehicle>
    <vehicle id="F0_1" depart="40.00">
        <route edges="R01 D14 R45 U52 L21 L10 D04 U41 R12 D25 U52 L21 D14 R45 L54 U41 R12 D25 L54 L43 U30 D04 L43 R34 U41 L10 D04 R45 L54 L43 U30"/>
    </vehicle>
    <vehicle id="F1_1" depart="40.00">
        <route edges="R34 U41 D14 R45 U52 L21 R12 L21 R12 D25 L54 L43 U30 D03 U30 D03 R34 U41 L10 D04 L43 U30 R01 D14 R45 L54 U41 L10 D03 U30 R01"/>
    </vehicle>
    <vehicle id="F0_2" depart="80.00">
        <route edges="R01 D14 R45 U52 D25 U52 D25 L54 R45 U52 D25 L54 L43 U30 R01 D14 R45 L54 U41 D14 R45 L54 R45 U52 L21 R12 L21 D14 R45 U52 L21"/>
    </vehicle>
    <vehicle id="F1_2" depart="80.00">
        <route edges="R34 U41 L10 D04 L43 R34 U41 R12 D25 U52 L21 L10 R01 D14 R45 L54 L43 R34 U41 L10 R01 D14 R45 U52 L21 D14 R45 U52 L21 R12 D25"/>
    </vehicle>
    <vehicle id="F0_3" depart="120.00">
        <route edges="R01 D14 R45 L54 U41 R12 D25 L54 U41 D14 R45 U52 D25 L54 U41 R12 L21 L10 R01 D14 R45 U52 L21 D14 R45 L54 L43 R34 U41 L10 D03"/>
    </vehicle>
    <vehicle id="F1_3" depart="120.00">
        <route edges="R34 U41 R12 D25 U52 D25 U52 L21 R12 D25 L54 L43 U30 R01 D14 R45 L54 R45 U52 D25 L54 U41 L10 D03 R34 U41 L10 R01 D14 R45 U52"/>
    </vehicle>
    <vehicle id="F0_4" depart="160.00">
        <route edges="R01 D14 R45 L54 U41 R12 D25 U52 L21 D14 R45 U52 D25 L54 L43 U30 R01 D14 R45 U52 L21 D14 R45 U52 L21 L10 D04 R45 U52 D25 U52"/>
    </vehicle>
    <vehicle id="F1_4" depart="160.00">
        <route edges="R34 U41 R12 L21 D14 R45 U52 D25 U52 D25 U52 L21 D14 R45 U52 L21 D14 R45 L54 R45 U52 D25 L54 L43 U30 D03 U30 R01 D14 R45 L54"/>
    </vehicle>
    <vehicle id="F0_5" depart="200.00">
        <route edges="R01 D14 R45 L54 U41 L10 R01 D14 R45 U52 D25 L54 U41 D14 R45 U52 L21 L10 D03 R34 U41 L10 D04 U41 R12 L21 R12 L21 L10 D04 R45"/>
    </vehicle>
    <vehicle id="F1_5" depart="200.00">
        <route edges="R34 U41 R12 D25 L54 U41 R12 D25 L54 R45 U52 D25 U52 L21 R12 D25 L54 L43 U30 D03 R34 U41 R12 D25 U52 D25 U52 D25 U52 D25 L54"/>
    </vehicle>
    <vehicle id="F0_6" depart="240.00">
        <route edges="R01 D14 R45 U52 D25 U52 L21 R12 D25 U52 L21 L10 D04 U41 R12 D25 L54 R45 L54 L43 R34 U41 L10 D03 U30 D03 R34 U41 L10 D04 R45"/>
    </vehicle>
    <vehicle id="F1_6" depart="240.00">
        <route edges="R34 U41 L10 D04 U41 R12 D25 L54 R45 L54 U41 L10 D03 R34 U41 D14 R45 L54 U41 R12 D25 U52 D25 U52 L21 D14 R45 L54 R45 L54 L43"/>
    </vehicle>
    <vehicle id="F0_7" depart="280.00">
        <route edges="R01 D14 R45 L54 U41 R12 D25 U52 L21 R12 D25 L54 L43 R34 U41 L10 D03 U30 R01 D14 R45 L54 R45 U52 D25 L54 U41 R12 L21 D14 R45"/>
    </vehicle>
    <vehicle id="F1_7" depart="280.00">
        <route edges="R34 U41 D14 R45 U52 D25 U52 L21 D14 R45 L54 L43 R34 U41 D14 R45 U52 L21 D14 R45 L54 R45 L54 R45 U52 D25 U52 D25 U52 L21 D14"/>
    </vehicle>
    <vehicle id="F0_8" depart="320.00">
        <route edges="R01 D14 R45 L54 U41 D14 R45 L54 L43 R34 U41 L10 D04 R45 L54 U41 R12 D25 L54 L43 R34 U41 L10 D04 R45 U52 L21 D14 R45 U52 D25"/>
    </vehicle>
    <vehicle id="F1_8" depart="320.00">
        <route edges="R34 U41 L10 D04 R45 U52 L21 D14 R45 U52 L21 D14 R45 U52 L21 R12 D25 U52 L21 D14 R45 U52 L21 D14 R45 U52 D25 U52 D25 U52 L21"/>
    </vehicle>
    <vehicle id="F0_9" depart="360.00">
        <route edges="R01 D14 R45 U52 L21 D14 R45 L54 U41 L10 D04 U41 L10 D04 U41 L10 D04 R45 U52 L21 D14 R45 U52 D25 U52 D25 L54 R45 U52 L21 D14"/>
    </vehicle>
    <vehicle id="F1_9" depart="360.00">
        <route edges="R34 U41 D14 R45 U52 L21 D14 R45 U52 L21 L10 R01 D14 R45 L54 R45 L54 R45 L54 L43 U30 D03 R34 U41 R12 L21 L10 D03 R34 U41 R12"/>
    </vehicle>
    <vehicle id="F0_10" depart="400.00">
        <route edges="R01 D14 R45 U52 L21 D14 R45 U52 L21 D14 R45 L54 U41 L10 D03 R34 U41 L10 D04 U41 L10 R01 D14 R45 L54 R45 U52 D25 L54 U41 D14"/>
    </vehicle>
    <vehicle id="F1_10" depart="400.00">
        <route edges="R34 U41 L10 R01 D14 R45 L54 L43 U30 D03 R34 U41 L10 D04 R45 U52 L21 R12 L21 D14 R45 U52 L21 L10 D03 R34 U41 D14 R45 U52 D25"/>
    </vehicle>
    <vehicle id="F0_11" depart="440.00">
        <route edges="R01 D14 R45 L54 R45 U52 D25 U52 L21 D14 R45 L54 L43 U30 R01 D14 R45 U52 L21 L10 D04 L43 U30 R01 D14 R45 L54 R45 L54 L43 U30"/>
    </vehicle>
    <vehicle id="F1_11" depart="440.00">
        <route edges="R34 U41 R12 D25 U52 L21 D14 R45 L54 L43 U30 D03 R34 U41 L10 D04 R45 L54 L43 U30 D03 R34 U41 R12 D25 L54 R45 L54 L43 R34 U41"/>
    </vehicle>
    <vehicle id="F0_12" depart="480.00">
        <route edges="R01 D14 R45 U52 L21 R12 D25 L54 R45 L54 L43 U30 D04 L43 U30 R01 D14 R45 U52 D25 U52 L21 D14 R45 U52 L21 L10 D03 R34 U41 D14"/>
    </vehicle>
    <vehicle id="F1_12" depart="480.00">
        <route edges="R34 U41 L10 D03 U30 D03 U30 R01 D14 R45 U52 L21 R12 D25 U52 L21 D14 R45 L54 R45 U52 D25 L54 L43 R34 U41 D14 R45 U52 D25 U52"/>
    </vehicle>
    <vehicle id="F0_13" depart="520.00">
        <route edges="R01 D14 R45 U52 L21 D14 R45 U52 D25 L54 U41 R12 D25 U52 L21 D14 R45 L54 L43 U30 D04 R45 U52 L21 D14 R45 L54 L43 U30 R01 D14"/>
    </vehicle>
    <vehicle id="F1_13" depart="520.00">
        <route edges="R34 U41 L10 D03 U30 D04 L43 R34 U41 L10 D04 L43 U30 D04 R45 L54 L43 R34 U41 D14 R45 L54 L43 R34 U41 L10 D04 L43 U30 R01 D14"/>
    </vehicle>
    <vehicle id="F0_14" depart="560.00">
        <route edges="R01 D14 R45 L54 L43 R34 U41 L10 D04 L43 R34 U41 L10 D04 R45 U52 L21 D14 R45 U52 L21 D14 R45 L54 U41 R12 L21 R12 D25 L54 L43"/>
    </vehicle>
    <vehicle id="F1_14" depart="560.00">
        <route edges="R34 U41 R12 L21 L10 R01 D14 R45 U52 L21 D14 R45 L54 U41 L10 D04 R45 L54 U41 L10 R01 D14 R45 L54 L43 U30 R01 D14 R45 L54 U41"/>
    </vehicle>
    <vehicle id="F0_15" depart="600.00">
        <route edges="R01 D14 R45 U52 L21 L10 D04 R45 L54 R45 U52 L21 D14 R45 U52 L21 L10 D04 L43 R34 U41 D14 R45 U52 L21 L10 D04 L43 U30 R01 D14"/>
    </vehicle>
    <vehicle id="F1_15" depart="600.00">
        <route edges="R34 U41 L10 R01 D14 R45 L54 L43 U30 R01 D14 R45 U52 L21 R12 D25 U52 D25 U52 L21 D14 R45 U52 D25 L54 L43 R34 U41 R12 D25 L54"/>
    </vehicle>
    <vehicle id="F0_16" depart="640.00">
        <route edges="R01 D14 R45 L54 U41 L10 R01 D14 R45 L54 U41 L10 D04 U41 L10 D03 R34 U41 R12 D25 U52 D25 L54 L43 R34 U41 R12 D25 U52 D25 U52"/>
    </vehicle>
    <vehicle id="F1_16" depart="640.00">
        <route edges="R34 U41 R12 L21 L10 D04 R45 U52 D25 L54 R45 U52 L21 D14 R45 L54 L43 U30 R01 D14 R45 U52 L21 L10 D03 R34 U41 L10 D04 U41 D14"/>
    </vehicle>
    <vehicle id="F0_17" depart="680.00">
        <route edges="R01 D14 R45 L54 L43 R34 U41 L10 D03 R34 U41 L10 D04 U41 R12 D25 L54 R45 L54 L43 U30 D04 R45 L54 L43 R34 U41 L10 D04 R45 U52"/>
    </vehicle>
    <vehicle id="F1_17" depart="680.00">
        <route edges="R34 U41 L10 R01 D14 R45 L54 L43 U30 R01 D14 R45 L54 L43 R34 U41 R12 L21 D14 R45 U52 D25 U52 L21 D14 R45 U52 L21 D14 R45 U52"/>
    </vehicle>
    <vehicle id="F0_18" depart="720.00">
        <route edges="R01 D14 R45 U52 D25 U52 D25 L54 U41 L10 R01 D14 R45 U52 D25 L54 R45 L54 R45 L54 L43 U30 D04 U41 D14 R45 L54 R45 L54 U41 L10"/>
    </vehicle>
    <vehicle id="F1_18" depart="720.00">
        <route edges="R34 U41 D14 R45 U52 L21 L10 D04 R45 U52 D25 L54 U41 L10 D03 U30 D04 U41 D14 R45 L54 U41 L10 D04 U41 R12 D25 U52 D25 L54 U41"/>
    </vehicle>
    <vehicle id="F0_19" depart="760.00">
        <route edges="R01 D14 R45 L54 U41 L10 R01 D14 R45 L54 L43 U30 R01 D14 R45 L54 L43 R34 U41 L10 D04 U41 L10 D03 R34 U41 R12 L21 D14 R45 U52"/>
    </vehicle>
    <vehicle id="F1_19" depart="760.00">
        <route edges="R34 U41 L10 D03 U30 D03 R34 U41 L10 D03 U30 D04 U41 L10 R01 D14 R45 L54 U41 R12 D25 U52 D25 U52 L21 L10 R01 D14 R45 U52 D25"/>
    </vehicle>
    <vehicle id="F0_20" depart="800.00">
        <route edges="R01 D14 R45 U52 D25 L54 U41 R12 D25 L54 L43 R34 U41 L10 D04 R45 U52 L21 D14 R45 U52 D25 L54 U41 L10 R01 D14 R45 U52 D25 L54"/>
    </vehicle>
    <vehicle id="F1_20" depart="800.00">
        <route edges="R34 U41 L10 D04 L43 U30 D04 U41 R12 D25 U52 D25 L54 L43 R34 U41 R12 D25 L54 L43 R34 U41 D14 R45 L54 R45 L54 U41 L10 D03 U30"/>
    </vehicle>
    <vehicle id="F0_21" depart="840.00">
        <route edges="R01 D14 R45 U52 L21 L10 D04 R45 L54 L43 U30 R01 D14 R45 U52 L21 R12 L21 D14 R45 U52 D25 U52 D25 L54 L43 U30 D03 U30 D03 R34"/>
    </vehicle>
    <vehicle id="F1_21" depart="840.00">
        <route edges="R34 U41 D14 R45 U52 D25 L54 L43 R34 U41 L10 R01 D14 R45 U52 L21 D14 R45 U52 D25 L54 L43 U30 D03 R34 U41 R12 D25 U52 L21 D14"/>
    </vehicle>
    <vehicle id="F0_22" depart="880.00">
        <route edges="R01 D14 R45 U52 L21 L10 D04 R45 L54 R45 L54 L43 U30 D03 U30 R01 D14 R45 U52 D25 U52 L21 D14 R45 U52 L21 L10 D04 R45 U52 D25"/>
    </vehicle>
    <vehicle id="F1_22" depart="880.00">
        <route edges="R34 U41 L10 D04 L43 U30 R01 D14 R45 U52 L21 L10 D03 R34 U41 L10 R01 D14 R45 U52 D25 U52 L21 L10 D03 R34 U41 L10 D03 R34 U41"/>
    </vehicle>
    <vehicle id="F0_23" depart="920.00">
        <route edges="R01 D14 R45 U52 L21 R12 D25 U52 L21 D14 R45 L54 L43 R34 U41 R12 D25 L54 U41 D14 R45 U52 L21 D14 R45 U52 L21 L10 R01 D14 R45"/>
    </vehicle>
    <vehicle id="F1_23" depart="920.00">
        <route edges="R34 U41 R12 D25 U52 L21 L10 D04 U41 D14 R45 L54 U41 L10 D04 R45 U52 D25 U52 L21 R12 L21 L10 D04 U41 R12 L21 R12 D25 U52 L21"/>
    </vehicle>
    <vehicle id="F0_24" depart="960.00">
        <route edges="R01 D14 R45 U52 D25 U52 L21 D14 R45 U52 D25 L54 L43 R34 U41 R12 L21 L10 D04 U41 D14 R45 L54 L43 R34 U41 D14 R45 U52 L21 R12"/>
    </vehicle>
    <vehicle id="F1_24" depart="960.00">
        <route edges="R34 U41 R12 D25 L54 L43 U30 D03 U30 D03 U30 D04 L43 U30 R01 D14 R45 U52 L21 L10 R01 D14 R45 U52 L21 L10 D03 R34 U41 L10 D04"/>
    </vehicle>
</routes>
